# ------------------------------------------------------------------------------------------
# Impression du contenu du fichier de commandes à exécuter :
# ------------------------------------------------------------------------------------------
# TEST PUSHOVER CON SEZIONE L100-N-mm
# CODE_ASTER V12

DEBUT();

mail=LIRE_MAILLAGE(FORMAT='MED',);

L100=LIRE_MAILLAGE(UNITE=21,
                      FORMAT='ASTER',);

L100=DEFI_GROUP(reuse =L100,
                   MAILLAGE=L100,
                   CREA_GROUP_MA=_F(NOM='TSEZ',
                                    TOUT='OUI',),
                   CREA_GROUP_NO=(_F(TOUT_GROUP_MA='OUI',),
                                  _F(GROUP_MA='L100_P1',
                                     NOM='L100P1',),),);

C_L100=MACR_CARA_POUTRE(MAILLAGE=L100,
                        TABLE_CARA='OUI',
                        GROUP_MA_BORD='L100_BE',
                        NOM='L100',
                        GROUP_NO='L100P1',);

modele=AFFE_MODELE(MAILLAGE=mail,
                   AFFE=_F(TOUT='OUI',
                           PHENOMENE='MECANIQUE',
                           MODELISATION='POU_D_TGM',),);

#MODELLO IN N mm

Sigmaeps=DEFI_FONCTION(
                       NOM_PARA='EPSI',
                       VALE=(0.0016 ,330.0 ,
                             0.0032 ,350.0 ,
                             0.0064 ,367.0 ,
                             0.0128 ,387.0 ,
                             0.02 ,401.0 ,
                             0.027 ,410.0 ,
                             0.04 ,420.0 ,
                             0.07 ,437.0 ,
                             0.1 ,450.0 ,
                             0.15 ,473.0 ,
                             0.2 ,490.0 ,
                             0.3 ,510.0 ,),
                       INTERPOL='LIN',
                       PROL_DROITE='LINEAIRE',
                       PROL_GAUCHE='EXCLU',);

#Courbe acier en traction 

acier=DEFI_MATERIAU(ELAS=_F(E=206000.0,
                            NU=0.27,
                            RHO=7.85e-06,),
                    TRACTION=_F(SIGM=Sigmaeps,),);

F_L100=DEFI_GEOM_FIBRE(SECTION=_F(GROUP_FIBRE='G_L100',
                                 GROUP_MA_SECT='L100_S1',
                                 MAILLAGE_SECT=L100,
                                 COOR_AXE_POUTRE=(0.0,0.0),),);

CL100=DEFI_COMPOR(GEOM_FIBRE=F_L100,
                   MATER_SECT=acier,
                   MULTIFIBRE=_F(GROUP_FIBRE='G_L100',
                                 MATER=acier,
                                 RELATION='VMIS_ISOT_TRAC',),);

M_L100=AFFE_MATERIAU(MAILLAGE=mail,
                      AFFE=_F(GROUP_MA='GROUPM',
                              MATER=acier,),
                      AFFE_COMPOR=_F(GROUP_MA='GROUPM',
                                     COMPOR=CL100,),);

carap=AFFE_CARA_ELEM(MODELE=modele,
                     POUTRE=_F(SECTION='GENERALE',
                               GROUP_MA='GROUPM',
                               TABLE_CARA=C_L100,
                               NOM_SEC='L100',),
                     ORIENTATION=_F(GROUP_MA='GROUPM',
                                    CARA='VECT_Y',
                                    VALE=(1.0,0.0,0.0,),),
                     GEOM_FIBRE=F_L100,
                      MULTIFIBRE=_F(GROUP_MA=('GROUPM', ),
                                       GROUP_FIBRE=('G_L100', ),
                                       PREC_AIRE=1.E-2,
                                       PREC_INERTIE=2,),);

Vincules=AFFE_CHAR_MECA(MODELE=modele,
                        DDL_IMPO=_F(GROUP_NO='I1',
                                    DX=0.0,
                                    DY=0.0,
                                    DZ=0.0,
                                    DRX=0.0,
                                    DRY=0.0,
                                    DRZ=0.0,),);
t0 = 0.0;

t1 = 1;

tsteps = 100;


charg=AFFE_CHAR_MECA(MODELE=modele,
                     FORCE_NODALE=_F(GROUP_NO='F1',
                                     FY=5000.0,),);

ramp=DEFI_FONCTION(
                   NOM_PARA='INST',
                   VALE=(t0 ,0.0 ,
                         t1 ,1.0 ,),
                   INFO=2,
                   TITRE='ramp',);

time=DEFI_LIST_REEL(DEBUT=0.0,
                    INTERVALLE=_F(JUSQU_A=t1,
                                  NOMBRE=tsteps,),
                    INFO=2,
                    TITRE='time',);

deflist=DEFI_LIST_INST(DEFI_LIST=_F(METHODE='AUTO',
                                    LIST_INST=time,
                                    PAS_MINI=0.0005,),);

Resultat=STAT_NON_LINE(MODELE=modele,
                       CHAM_MATER=M_L100,
                       CARA_ELEM=carap,
                       EXCIT=(_F(CHARGE=Vincules,),
                              _F(CHARGE=charg,
                                 FONC_MULT=ramp,),),
                       COMPORTEMENT=_F(TOUT='OUI',
                                       RELATION='MULTIFIBRE',
                                       DEFORMATION='PETIT',),
                       INCREMENT=_F(LIST_INST=deflist,),
                       NEWTON=_F(PREDICTION='ELASTIQUE',
                                 REAC_ITER=1,),
                       CONVERGENCE=_F(ITER_GLOB_MAXI=20,),
                       ARCHIVAGE=_F(PAS_ARCH=2,),);

Resultat=CALC_CHAMP(reuse =Resultat,
                    MODELE=modele,
                    RESULTAT=Resultat,
                    TOUT='OUI',
                    CONTRAINTE=('EFGE_ELNO','EFGE_NOEU',),);

IMPR_RESU(FORMAT='MED',
	CONCEPT=_F(CARA_ELEM=carap,
                     REPERE_LOCAL='OUI',
                     MODELE=modele,),
          RESU=_F(RESULTAT=Resultat,
                  NOM_CHAM=('DEPL','EFGE_NOEU',),
                  TOUT_CMP='OUI',),);
FIN();
#CHECKSUM:e1ccb658e32d9d9119fc99bbaaa0cb5b  -:FIN CHECKSUM

# ------------------------------------------------------------------------------------------

  Ouverture en écriture du fichier ./vola.1
                                                                                
                                                                                
              -- CODE_ASTER -- VERSION : EXPLOITATION (stable) --               
                                                                                
                     Version 12.6.0 modifiée le 16/06/2016                      
                     révision 77d3379d51e8 - branche 'v12'                      
                         Copyright EDF R&D 1991 - 2022                          
                                                                                
                    Exécution du : Wed Dec 14 12:00:48 2022                     
                Nom de la machine : caelinux-System-Product-Name                
                              Architecture : 64bit                              
                          Type de processeur : x86_64                           
     Système d'exploitation : Linux debian stretch/sid  4.15.0-142-generic      
                        Langue des messages : it (UTF-8)                        
                                                                                
                           Version de Python : 2.7.10                           
                            Version de NumPy : 1.9.2                            
   
   !------------------------------------------------------------------------------------!
   ! <A> <SUPERVIS2_2>                                                                  !
   !                                                                                    !
   !     Vous utilisez une vieille version de Code_Aster.                               !
   !                                                                                    !
   !     En mettant à jour votre version, vous bénéficierez des dernières améliorations !
   !     apportées au code depuis 15 mois.                                              !
   !     Si vous avez des développements privés, vous risquez d'avoir un travail        !
   !     important de portage si vous ne suivez pas les mises à jour.                   !
   !                                                                                    !
   !                                                                                    !
   ! Ceci est une alarme. Si vous ne comprenez pas le sens de cette                     !
   ! alarme, vous pouvez obtenir des résultats inattendus !                             !
   !------------------------------------------------------------------------------------!
   
                           Parallélisme MPI : inactif                           
                          Parallélisme OpenMP : actif                           
                        Nombre de processus utilisés : 1                        
                     Version de la librairie HDF5 : 1.8.14                      
                      Version de la librairie MED : 3.2.0                       
                     Version de la librairie MFront : 2.0.2                     
                     Version de la librairie MUMPS : 4.10.0                     
                        Librairie PETSc : non disponible                        
                    Version de la librairie SCOTCH : 5.1.10                     

                  Mémoire limite pour l'exécution : 2350.00 Mo                  
                   consommée par l'initialisation : 369.27 Mo                   
                  par les objets du jeu de commandes : 3.45 Mo                  
                 reste pour l'allocation dynamique : 1977.29 Mo                 
                Taille limite des fichiers d'échange : 12.00 Go                 
                                                                                

  # ------------------------------------------------------------------------------------------
  # Commande No :  0001            Concept de type : -
  # ------------------------------------------------------------------------------------------
  DEBUT(INFO=1,
        PAR_LOT='OUI',
        IMPR_MACRO='NON',
        MEMOIRE=_F(TAILLE_BLOC=800.0,
                   TAILLE_GROUP_ELEM=1000,),
        RESERVE_CPU=_F(BORNE=900,),
        MESURE_TEMPS=_F(MOYENNE='NON',
                        NIVE_DETAIL=1,),
        )



  Valeur initiale du temps CPU maximum =   900 secondes
  Valeur du temps CPU maximum passé aux commandes =   810 secondes
  Réserve CPU prévue = 90 secondes

  Ouverture en écriture du fichier ./glob.1

  Ouverture en écriture du fichier ./vola.1

  Ouverture en lecture du fichier /home/caelinux/salome_meca/V2016/tools/Code_aster_stable-1260/lib/aster/elem.1

     Nom de la base                          :  ELEMBASE
     Créée avec la version                   :  12.06.00
     Nombre d'enregistrements utilisés       :  30
     Nombre d'enregistrements maximum        :  512
     Longueur d'enregistrement (octets)      :  819200
     Nombre d'identificateurs utilisés       :  123
     Taille maximum du répertoire            :  300
     Pourcentage d'utilisation du répertoire :  41 %

  Ouverture en lecture du fichier /home/caelinux/salome_meca/V2016/tools/Code_aster_stable-1260/lib/aster/elem.1


     Nom de la base                          :  ELEMBASE
     Nombre d'enregistrements utilisés       :  30
     Nombre d'enregistrements maximum        :  512
     Longueur d'enregistrement (octets)      :  819200
     Nombre total d'accès en lecture         :  52
     Volume des accès en lecture             :         40.62 Mo.
     Nombre total d'accès en écriture        :  0
     Volume des accès en écriture            :          0.00 Mo.
     Nombre d'identificateurs utilisés       :  123
     Taille maximum du répertoire            :  300
     Pourcentage d'utilisation du répertoire :  41 %

  Relecture des catalogues des éléments faite.

  Fin de lecture (durée  0.000000  s.) 
  # Mémoire (Mo) :   409.27 /   403.65 /    35.93 /    19.37 (VmPeak / VmSize / Optimum / Minimum)
  # Fin commande No : 0001   user+syst:        0.03s (syst:        0.02s, elaps:        0.03s)
  # ------------------------------------------------------------------------------------------

  # ------------------------------------------------------------------------------------------
  # Commande No :  0002            Concept de type : maillage_sdaster
  # ------------------------------------------------------------------------------------------
  mail = LIRE_MAILLAGE(FORMAT='MED',
                       INFO_MED=1,
                       INFO=1,
                       UNITE=20,
                       VERI_MAIL=_F(APLAT=1.E-3,
                                    VERIF='OUI',),
                       )

  ====== VERIFICATION DU MAILLAGE ======
 

------------ MAILLAGE mail     - IMPRESSIONS NIVEAU  1 ------------

ME-14-DECE-2022 12:00:48                                                        

NOMBRE DE NOEUDS                          11

NOMBRE DE MAILLES                         10
                              SEG2                   10

NOMBRE DE GROUPES DE NOEUDS                2
                              I1                                   1
                              F1                                   1

NOMBRE DE GROUPES DE MAILLES               1
                              GROUPM                              10

--------------------------------------------------------------------------------

  # Mémoire (Mo) :   409.27 /   404.50 /    35.93 /    19.37 (VmPeak / VmSize / Optimum / Minimum)
  # Fin commande No : 0002   user+syst:        0.01s (syst:        0.00s, elaps:        0.00s)
  # ------------------------------------------------------------------------------------------

  # ------------------------------------------------------------------------------------------
  # Commande No :  0003            Concept de type : maillage_sdaster
  # ------------------------------------------------------------------------------------------
  L100 = LIRE_MAILLAGE(UNITE=21,
                       FORMAT='ASTER',
                       INFO=1,
                       VERI_MAIL=_F(APLAT=1.E-3,
                                    VERIF='OUI',),
                       )

  ====== VERIFICATION DU MAILLAGE ======
 
  MAILLE POI1 M1      INCLUSE DANS UNE AUTRE

------------ MAILLAGE L100     - IMPRESSIONS NIVEAU  1 ------------

ME-14-DECE-2022 10:54:54                                                        

NOMBRE DE NOEUDS                         650

NOMBRE DE MAILLES                       1299
                              POI1                    1
                              SEG2                  195
                              TRIA3                1103

NOMBRE DE GROUPES DE NOEUDS                1
                              L100_P1                              1

NOMBRE DE GROUPES DE MAILLES               3
                              L100_S1                           1103
                              L100_BE                            195
                              L100_P1                              1

--------------------------------------------------------------------------------

  # Mémoire (Mo) :   409.27 /   404.59 /    35.93 /    19.37 (VmPeak / VmSize / Optimum / Minimum)
  # Fin commande No : 0003   user+syst:        0.01s (syst:        0.00s, elaps:        0.02s)
  # ------------------------------------------------------------------------------------------

  # ------------------------------------------------------------------------------------------
  # Commande No :  0004            Concept de type : maillage_sdaster
  # ------------------------------------------------------------------------------------------
  L100 = DEFI_GROUP(reuse=L100,
                    MAILLAGE=L100,
                    CREA_GROUP_NO=(_F(TOUT_GROUP_MA='OUI',),
                                   _F(GROUP_MA=('L100_P1', ),
                                      NOM=('L100P1', ),
                                      CRIT_NOEUD='TOUS',),
                                   ),
                    CREA_GROUP_MA=_F(NOM='TSEZ',
                                     TOUT='OUI',
                                     TYPE_MAILLE='TOUT',),
                    ALARME='OUI',)



NOMBRE  DE GROUPES DE MAILLES CREES :      1
=============================================

               ------------------------------------------------------
               !         NOM DU GROUPE         ! NBRE DE MAILLES DU !
               !            MAILLES            !     GROUPE_MA      !
               ------------------------------------------------------
               !  TSEZ                         !      1299          !
               ------------------------------------------------------

   
   !----------------------------------------------------------------!
   ! <A> <MODELISA7_9>                                              !
   !                                                                !
   !  le GROUP_NO :  L100_P1  existe déjà, on ne le crée donc pas.  !
   !                                                                !
   !                                                                !
   ! Ceci est une alarme. Si vous ne comprenez pas le sens de cette !
   ! alarme, vous pouvez obtenir des résultats inattendus !         !
   !----------------------------------------------------------------!
   


NOMBRE  DE GROUPES DE NOEUDS CREES :      4
=======================================

               ------------------------------------------------------
               !         NOM DU GROUPE         ! NBRE DE NOEUDS DU  !
               !            NOEUDS             !      GROUPE_NO     !
               ------------------------------------------------------
               !  L100_S1                      !       650          !
               !  L100_BE                      !       195          !
               !  TSEZ                         !       650          !
               !  L100P1                       !         1          !
               ------------------------------------------------------

  # Mémoire (Mo) :   409.27 /   404.72 /    35.93 /    19.37 (VmPeak / VmSize / Optimum / Minimum)
  # Fin commande No : 0004   user+syst:        0.01s (syst:        0.00s, elaps:        0.00s)
  # ------------------------------------------------------------------------------------------

  # ------------------------------------------------------------------------------------------
  # Commande No :  0005            Concept de type : table_sdaster
  # ------------------------------------------------------------------------------------------
  C_L100 = MACR_CARA_POUTRE(GROUP_MA_BORD=('L100_BE', ),
                            MAILLAGE=L100,
                            TABLE_CARA='OUI',
                            NOM='L100',
                            GROUP_NO=('L100P1', ),
                            INFO=1,
                            ORIG_INER=(0.0, 0.0),)


Sur les 1299 mailles du maillage .9000017, on a demandé l'affectation de 1299, on a pu en affecter 1298
 Modélisation     Type maille  Élément fini     Nombre
 D_PLAN           TRIA3        MEDPTR3          1103
                  SEG2         MEPLSE2          195
#2      Calculs elementaires et assemblages               CPU (USER+SYST/SYST/ELAPS):      0.00      0.00      0.00

 MATERIAU : .9000019
 RELATION DE COMPORTEMENT: ELAS                            


#2      Calculs elementaires et assemblages               CPU (USER+SYST/SYST/ELAPS):      0.00      0.00      0.00
   
   !----------------------------------------------------------------!
   ! <A> <MODELISA7_9>                                              !
   !                                                                !
   !  le GROUP_NO :  L100_BE  existe déjà, on ne le crée donc pas.  !
   !                                                                !
   !                                                                !
   ! Ceci est une alarme. Si vous ne comprenez pas le sens de cette !
   ! alarme, vous pouvez obtenir des résultats inattendus !         !
   !----------------------------------------------------------------!
   

------------ MAILLAGE .9000022 - IMPRESSIONS NIVEAU  1 ------------

ASTER 12.06.00 CONCEPT .9000022 CALCULE LE 14/12/2022 A 12:00:49 DE TYPE        
MAILLAGE_SDASTER                                                                

NOMBRE DE NOEUDS                         650

NOMBRE DE MAILLES                       1299
                              POI1                    1
                              SEG2                  195
                              TRIA3                1103

NOMBRE DE GROUPES DE NOEUDS                5
                              L100_P1                              1
                              L100_S1                            650
                              L100_BE                            195
                              TSEZ                               650
                              L100P1                               1

NOMBRE DE GROUPES DE MAILLES               4
                              L100_S1                           1103
                              L100_BE                            195
                              L100_P1                              1
                              TSEZ                              1299

--------------------------------------------------------------------------------


Sur les 1299 mailles du maillage .9000022, on a demandé l'affectation de 1299, on a pu en affecter 1298
 Modélisation     Type maille  Élément fini     Nombre
 PLAN             SEG2         THPLSE2          195
 PLAN             TRIA3        THPLTR3          1103
#2      Calculs elementaires et assemblages               CPU (USER+SYST/SYST/ELAPS):      0.00      0.00      0.00

 MATERIAU : .9000024
 RELATION DE COMPORTEMENT: THER                            


   
   !-------------------------------------------------------------------------------!
   ! <A> <CHARGES2_87>                                                             !
   !                                                                               !
   !  La maille de nom M2 n'est pas de type surfacique (triangles ou quadrangles). !
   !  Elle ne sera pas affectée par SOURCE .                                       !
   !                                                                               !
   !                                                                               !
   ! Ceci est une alarme. Si vous ne comprenez pas le sens de cette                !
   ! alarme, vous pouvez obtenir des résultats inattendus !                        !
   !-------------------------------------------------------------------------------!
   
   
   !-------------------------------------------------------------------------------!
   ! <A> <CHARGES2_87>                                                             !
   !                                                                               !
   !  La maille de nom M3 n'est pas de type surfacique (triangles ou quadrangles). !
   !  Elle ne sera pas affectée par SOURCE .                                       !
   !                                                                               !
   !                                                                               !
   ! Ceci est une alarme. Si vous ne comprenez pas le sens de cette                !
   ! alarme, vous pouvez obtenir des résultats inattendus !                        !
   !-------------------------------------------------------------------------------!
   
   
   !-------------------------------------------------------------------------------!
   ! <A> <CHARGES2_87>                                                             !
   !                                                                               !
   !  La maille de nom M4 n'est pas de type surfacique (triangles ou quadrangles). !
   !  Elle ne sera pas affectée par SOURCE .                                       !
   !                                                                               !
   !                                                                               !
   ! Ceci est une alarme. Si vous ne comprenez pas le sens de cette                !
   ! alarme, vous pouvez obtenir des résultats inattendus !                        !
   !-------------------------------------------------------------------------------!
   
   
   !-------------------------------------------------------------------------------!
   ! <A> <CHARGES2_87>                                                             !
   !                                                                               !
   !  La maille de nom M5 n'est pas de type surfacique (triangles ou quadrangles). !
   !  Elle ne sera pas affectée par SOURCE .                                       !
   !                                                                               !
   !                                                                               !
   ! Ceci est une alarme. Si vous ne comprenez pas le sens de cette                !
   ! alarme, vous pouvez obtenir des résultats inattendus !                        !
   !-------------------------------------------------------------------------------!
   
   
   !-------------------------------------------------------------------------------!
   ! <A> <CHARGES2_87>                                                             !
   !                                                                               !
   !  La maille de nom M6 n'est pas de type surfacique (triangles ou quadrangles). !
   !  Elle ne sera pas affectée par SOURCE .                                       !
   !                                                                               !
   !                                                                               !
   ! Ceci est une alarme. Si vous ne comprenez pas le sens de cette                !
   ! alarme, vous pouvez obtenir des résultats inattendus !                        !
   !-------------------------------------------------------------------------------!
   
   
   !-------------------------------------------------------------------------------!
   ! <A> <CATAMESS_41>                                                             !
   !                                                                               !
   ! Le message d'alarme 'CHARGES2_87' a été émis 5 fois, il ne sera plus affiché. !
   !                                                                               !
   !                                                                               !
   ! Ceci est une alarme. Si vous ne comprenez pas le sens de cette                !
   ! alarme, vous pouvez obtenir des résultats inattendus !                        !
   !-------------------------------------------------------------------------------!
   
   
   !-------------------------------------------------------------------------------!
   ! <A> <CALCULEL_40>                                                             !
   !                                                                               !
   !  Erreur possible d'utilisation:                                               !
   !    Vous avez affecté des données sur certaines mailles mais ces données       !
   !    n'ont pas de signification pour les éléments finis portés par ces mailles. !
   !    Il s'agit peut-être d'une erreur d'affectation.                            !
   !                                                                               !
   !  Champ : '.9000026.CHTH.SOURE'                                                !
   !  Commentaire sur ce champ : Chargement provenant du mot cle SOURCE            !
   !  Grandeur : SOUR_R   Composante non reconnue : SOUR                           !
   !                                                                               !
   !  Ce problème concerne 195 mailles                                             !
   !  Les premières mailles concernées sont imprimées ci-dessous.                  !
   !  Type de l'élément affecté sur la première maille imprimée : THPLSE2          !
   !                                                                               !
   !                                                                               !
   ! Ceci est une alarme. Si vous ne comprenez pas le sens de cette                !
   ! alarme, vous pouvez obtenir des résultats inattendus !                        !
   !-------------------------------------------------------------------------------!
   
  Maille : M2. Cette maille appartient aux GROUP_MA : L100_BE TSEZ  
  Maille : M3. Cette maille appartient aux GROUP_MA : L100_BE TSEZ  
  Maille : M4. Cette maille appartient aux GROUP_MA : L100_BE TSEZ  
  Maille : M5. Cette maille appartient aux GROUP_MA : L100_BE TSEZ  
  Maille : M6. Cette maille appartient aux GROUP_MA : L100_BE TSEZ  

Le système linéaire à résoudre a 1040 degrés de liberté:
   - 650 sont des degrés de liberté physiques
     (ils sont portés par 650 noeuds du maillage)
   - 390 sont les couples de paramètres de Lagrange associés
     aux 195 relations linéaires dualisées.

La matrice est de taille 1040 équations.
Elle contient 3377 termes non nuls si elle est symétrique et 5714 termes non nuls si elle n'est pas symétrique (le nombre de termes
non nuls est susceptible de varier si l'on utilise le contact en formulation continue ou la méthode XFEM avec contact).
Soit un taux de remplissage de   0.528 %.

 Il n'y a pas d'état initial défini. On prend un état initial nul.

  Archivage des champs
    Champ stocké <TEMP> à l'instant  0.000000000000e+00 pour le numéro d'ordre 0
NUMERO D'ORDRE:      0 INSTANT:   0.000E+00 DUREE MOYENNE:   1.000E-02
#1      Resolution des systemes lineaires                 CPU (USER+SYST/SYST/ELAPS):      0.01      0.00      0.00
#2      Calculs elementaires et assemblages               CPU (USER+SYST/SYST/ELAPS):      0.00      0.00      0.01
   
   !-------------------------------------------------------------------------------!
   ! <A> <CHARGES2_87>                                                             !
   !                                                                               !
   !  La maille de nom M2 n'est pas de type surfacique (triangles ou quadrangles). !
   !  Elle ne sera pas affectée par SOURCE .                                       !
   !                                                                               !
   !                                                                               !
   ! Ceci est une alarme. Si vous ne comprenez pas le sens de cette                !
   ! alarme, vous pouvez obtenir des résultats inattendus !                        !
   !-------------------------------------------------------------------------------!
   
   
   !-------------------------------------------------------------------------------!
   ! <A> <CHARGES2_87>                                                             !
   !                                                                               !
   !  La maille de nom M3 n'est pas de type surfacique (triangles ou quadrangles). !
   !  Elle ne sera pas affectée par SOURCE .                                       !
   !                                                                               !
   !                                                                               !
   ! Ceci est une alarme. Si vous ne comprenez pas le sens de cette                !
   ! alarme, vous pouvez obtenir des résultats inattendus !                        !
   !-------------------------------------------------------------------------------!
   
   
   !-------------------------------------------------------------------------------!
   ! <A> <CHARGES2_87>                                                             !
   !                                                                               !
   !  La maille de nom M4 n'est pas de type surfacique (triangles ou quadrangles). !
   !  Elle ne sera pas affectée par SOURCE .                                       !
   !                                                                               !
   !                                                                               !
   ! Ceci est une alarme. Si vous ne comprenez pas le sens de cette                !
   ! alarme, vous pouvez obtenir des résultats inattendus !                        !
   !-------------------------------------------------------------------------------!
   
   
   !-------------------------------------------------------------------------------!
   ! <A> <CHARGES2_87>                                                             !
   !                                                                               !
   !  La maille de nom M5 n'est pas de type surfacique (triangles ou quadrangles). !
   !  Elle ne sera pas affectée par SOURCE .                                       !
   !                                                                               !
   !                                                                               !
   ! Ceci est une alarme. Si vous ne comprenez pas le sens de cette                !
   ! alarme, vous pouvez obtenir des résultats inattendus !                        !
   !-------------------------------------------------------------------------------!
   
   
   !-------------------------------------------------------------------------------!
   ! <A> <CHARGES2_87>                                                             !
   !                                                                               !
   !  La maille de nom M6 n'est pas de type surfacique (triangles ou quadrangles). !
   !  Elle ne sera pas affectée par SOURCE .                                       !
   !                                                                               !
   !                                                                               !
   ! Ceci est une alarme. Si vous ne comprenez pas le sens de cette                !
   ! alarme, vous pouvez obtenir des résultats inattendus !                        !
   !-------------------------------------------------------------------------------!
   
   
   !-------------------------------------------------------------------------------!
   ! <A> <CATAMESS_41>                                                             !
   !                                                                               !
   ! Le message d'alarme 'CHARGES2_87' a été émis 5 fois, il ne sera plus affiché. !
   !                                                                               !
   !                                                                               !
   ! Ceci est une alarme. Si vous ne comprenez pas le sens de cette                !
   ! alarme, vous pouvez obtenir des résultats inattendus !                        !
   !-------------------------------------------------------------------------------!
   
   
   !-------------------------------------------------------------------------------!
   ! <A> <CALCULEL_40>                                                             !
   !                                                                               !
   !  Erreur possible d'utilisation:                                               !
   !    Vous avez affecté des données sur certaines mailles mais ces données       !
   !    n'ont pas de signification pour les éléments finis portés par ces mailles. !
   !    Il s'agit peut-être d'une erreur d'affectation.                            !
   !                                                                               !
   !  Champ : '.9000030.CHTH.SOURE'                                                !
   !  Commentaire sur ce champ : Chargement provenant du mot cle SOURCE            !
   !  Grandeur : SOUR_F   Composante non reconnue : SOUR                           !
   !                                                                               !
   !  Ce problème concerne 195 mailles                                             !
   !  Les premières mailles concernées sont imprimées ci-dessous.                  !
   !  Type de l'élément affecté sur la première maille imprimée : THPLSE2          !
   !                                                                               !
   !                                                                               !
   ! Ceci est une alarme. Si vous ne comprenez pas le sens de cette                !
   ! alarme, vous pouvez obtenir des résultats inattendus !                        !
   !-------------------------------------------------------------------------------!
   
  Maille : M2. Cette maille appartient aux GROUP_MA : L100_BE TSEZ  
  Maille : M3. Cette maille appartient aux GROUP_MA : L100_BE TSEZ  
  Maille : M4. Cette maille appartient aux GROUP_MA : L100_BE TSEZ  
  Maille : M5. Cette maille appartient aux GROUP_MA : L100_BE TSEZ  
  Maille : M6. Cette maille appartient aux GROUP_MA : L100_BE TSEZ  

Le système linéaire à résoudre a 652 degrés de liberté:
   - 650 sont des degrés de liberté physiques
     (ils sont portés par 650 noeuds du maillage)
   - 2 sont les couples de paramètres de Lagrange associés
     aux 1 relations linéaires dualisées.

La matrice est de taille 652 équations.
Elle contient 2407 termes non nuls si elle est symétrique et 4162 termes non nuls si elle n'est pas symétrique (le nombre de termes
non nuls est susceptible de varier si l'on utilise le contact en formulation continue ou la méthode XFEM avec contact).
Soit un taux de remplissage de   0.979 %.

 Il n'y a pas d'état initial défini. On prend un état initial nul.

  Archivage des champs
    Champ stocké <TEMP> à l'instant  0.000000000000e+00 pour le numéro d'ordre 0
NUMERO D'ORDRE:      0 INSTANT:   0.000E+00 DUREE MOYENNE:   1.000E-02
#1      Resolution des systemes lineaires                 CPU (USER+SYST/SYST/ELAPS):      0.00      0.00      0.00
#2      Calculs elementaires et assemblages               CPU (USER+SYST/SYST/ELAPS):      0.00      0.00      0.01
   
   !-------------------------------------------------------------------------------!
   ! <A> <CHARGES2_87>                                                             !
   !                                                                               !
   !  La maille de nom M2 n'est pas de type surfacique (triangles ou quadrangles). !
   !  Elle ne sera pas affectée par SOURCE .                                       !
   !                                                                               !
   !                                                                               !
   ! Ceci est une alarme. Si vous ne comprenez pas le sens de cette                !
   ! alarme, vous pouvez obtenir des résultats inattendus !                        !
   !-------------------------------------------------------------------------------!
   
   
   !-------------------------------------------------------------------------------!
   ! <A> <CHARGES2_87>                                                             !
   !                                                                               !
   !  La maille de nom M3 n'est pas de type surfacique (triangles ou quadrangles). !
   !  Elle ne sera pas affectée par SOURCE .                                       !
   !                                                                               !
   !                                                                               !
   ! Ceci est une alarme. Si vous ne comprenez pas le sens de cette                !
   ! alarme, vous pouvez obtenir des résultats inattendus !                        !
   !-------------------------------------------------------------------------------!
   
   
   !-------------------------------------------------------------------------------!
   ! <A> <CHARGES2_87>                                                             !
   !                                                                               !
   !  La maille de nom M4 n'est pas de type surfacique (triangles ou quadrangles). !
   !  Elle ne sera pas affectée par SOURCE .                                       !
   !                                                                               !
   !                                                                               !
   ! Ceci est une alarme. Si vous ne comprenez pas le sens de cette                !
   ! alarme, vous pouvez obtenir des résultats inattendus !                        !
   !-------------------------------------------------------------------------------!
   
   
   !-------------------------------------------------------------------------------!
   ! <A> <CHARGES2_87>                                                             !
   !                                                                               !
   !  La maille de nom M5 n'est pas de type surfacique (triangles ou quadrangles). !
   !  Elle ne sera pas affectée par SOURCE .                                       !
   !                                                                               !
   !                                                                               !
   ! Ceci est une alarme. Si vous ne comprenez pas le sens de cette                !
   ! alarme, vous pouvez obtenir des résultats inattendus !                        !
   !-------------------------------------------------------------------------------!
   
   
   !-------------------------------------------------------------------------------!
   ! <A> <CHARGES2_87>                                                             !
   !                                                                               !
   !  La maille de nom M6 n'est pas de type surfacique (triangles ou quadrangles). !
   !  Elle ne sera pas affectée par SOURCE .                                       !
   !                                                                               !
   !                                                                               !
   ! Ceci est une alarme. Si vous ne comprenez pas le sens de cette                !
   ! alarme, vous pouvez obtenir des résultats inattendus !                        !
   !-------------------------------------------------------------------------------!
   
   
   !-------------------------------------------------------------------------------!
   ! <A> <CATAMESS_41>                                                             !
   !                                                                               !
   ! Le message d'alarme 'CHARGES2_87' a été émis 5 fois, il ne sera plus affiché. !
   !                                                                               !
   !                                                                               !
   ! Ceci est une alarme. Si vous ne comprenez pas le sens de cette                !
   ! alarme, vous pouvez obtenir des résultats inattendus !                        !
   !-------------------------------------------------------------------------------!
   
   
   !-------------------------------------------------------------------------------!
   ! <A> <CALCULEL_40>                                                             !
   !                                                                               !
   !  Erreur possible d'utilisation:                                               !
   !    Vous avez affecté des données sur certaines mailles mais ces données       !
   !    n'ont pas de signification pour les éléments finis portés par ces mailles. !
   !    Il s'agit peut-être d'une erreur d'affectation.                            !
   !                                                                               !
   !  Champ : '.9000033.CHTH.SOURE'                                                !
   !  Commentaire sur ce champ : Chargement provenant du mot cle SOURCE            !
   !  Grandeur : SOUR_F   Composante non reconnue : SOUR                           !
   !                                                                               !
   !  Ce problème concerne 195 mailles                                             !
   !  Les premières mailles concernées sont imprimées ci-dessous.                  !
   !  Type de l'élément affecté sur la première maille imprimée : THPLSE2          !
   !                                                                               !
   !                                                                               !
   ! Ceci est une alarme. Si vous ne comprenez pas le sens de cette                !
   ! alarme, vous pouvez obtenir des résultats inattendus !                        !
   !-------------------------------------------------------------------------------!
   
  Maille : M2. Cette maille appartient aux GROUP_MA : L100_BE TSEZ  
  Maille : M3. Cette maille appartient aux GROUP_MA : L100_BE TSEZ  
  Maille : M4. Cette maille appartient aux GROUP_MA : L100_BE TSEZ  
  Maille : M5. Cette maille appartient aux GROUP_MA : L100_BE TSEZ  
  Maille : M6. Cette maille appartient aux GROUP_MA : L100_BE TSEZ  

Le système linéaire à résoudre a 652 degrés de liberté:
   - 650 sont des degrés de liberté physiques
     (ils sont portés par 650 noeuds du maillage)
   - 2 sont les couples de paramètres de Lagrange associés
     aux 1 relations linéaires dualisées.

La matrice est de taille 652 équations.
Elle contient 2407 termes non nuls si elle est symétrique et 4162 termes non nuls si elle n'est pas symétrique (le nombre de termes
non nuls est susceptible de varier si l'on utilise le contact en formulation continue ou la méthode XFEM avec contact).
Soit un taux de remplissage de   0.979 %.

 Il n'y a pas d'état initial défini. On prend un état initial nul.

  Archivage des champs
    Champ stocké <TEMP> à l'instant  0.000000000000e+00 pour le numéro d'ordre 0
NUMERO D'ORDRE:      0 INSTANT:   0.000E+00 DUREE MOYENNE:   1.000E-02
#1      Resolution des systemes lineaires                 CPU (USER+SYST/SYST/ELAPS):      0.00      0.00      0.00
#2      Calculs elementaires et assemblages               CPU (USER+SYST/SYST/ELAPS):      0.01      0.00      0.01
#2      Calculs elementaires et assemblages               CPU (USER+SYST/SYST/ELAPS):      0.01      0.00      0.00
   
   !--------------------------------------------------------------------------------------------!
   ! <A> <SUPERVIS_9>                                                                           !
   !                                                                                            !
   ! Fonctionnalité obsolète : La commande 'INTE_MAIL_2D'                                       !
   !                                                                                            !
   ! La fonctionnalité mentionnée ci-dessus est obsolète et son utilisation                     !
   ! est déconseillée dans la version du code que vous utilisez.                                !
   ! Elle sera supprimée dans la version 13.                                                    !
   !                                                                                            !
   ! Conseils :                                                                                 !
   ! - pour assurer la pérennité de votre étude, modifiez votre fichier de commandes ;          !
   ! - si vous avez un besoin impérieux de cette fonctionnalité,                                !
   !   rapprochez-vous de votre correspondant Club utilisateur ou de l'équipe de développement. !
   !                                                                                            !
   !                                                                                            !
   ! Ceci est une alarme. Si vous ne comprenez pas le sens de cette                             !
   ! alarme, vous pouvez obtenir des résultats inattendus !                                     !
   !--------------------------------------------------------------------------------------------!
   

 COURBE DEFINIE A PARTIR D'UNE LISTE DE MAILLES
   COURBE DEFINIE PAR  1 CHEMIN(S)
     CHEMIN NUMERO  1 DE TYPE "CYCLE"
         MAILLES DEFINISSANT LE CHEMIN:
          M2                    M197    
          M3                    M198    
          M4                    M318    
          M5                    M199    
          M6                    M320    
          M7                    M200    
          M8                    M321    
          M9                    M201    
          M10                   M322    
          M11                   M202    
          M12                   M323    
          M13                   M203    
          M14                   M324    
          M15                   M204    
          M16                   M325    
          M17                   M205    
          M18                   M326    
          M19                   M206    
          M20                   M327    
          M21                   M207    
          M22                   M328    
          M23                   M208    
          M24                   M329    
          M25                   M209    
          M26                   M330    
          M27                   M210    
          M28                   M331    
          M29                   M211    
          M30                   M332    
          M31                   M212    
          M32                   M333    
          M33                   M213    
          M34                   M334    
          M35                   M214    
          M36                   M335    
          M37                   M215    
          M38                   M336    
          M39                   M216    
          M40                   M337    
          M41                   M217    
          M42                   M338    
          M43                   M218    
          M44                   M339    
          M45                   M219    
          M46                   M340    
          M47                   M220    
          M48                   M341    
          M49                   M221    
          M50                   M343    
          M51                   M222    
          M147                  M222    
          M148                  M290    
          M149                  M398    
          M150                  M291    
          M151                  M396    
          M152                  M292    
          M153                  M392    
          M154                  M293    
          M155                  M401    
          M156                  M294    
          M157                  M402    
          M158                  M295    
          M159                  M403    
          M160                  M296    
          M161                  M404    
          M162                  M297    
          M163                  M405    
          M164                  M298    
          M165                  M406    
          M166                  M299    
          M167                  M407    
          M168                  M300    
          M169                  M408    
          M170                  M301    
          M171                  M409    
          M172                  M302    
          M173                  M410    
          M174                  M303    
          M175                  M411    
          M176                  M304    
          M177                  M412    
          M178                  M305    
          M179                  M413    
          M180                  M306    
          M181                  M414    
          M182                  M307    
          M183                  M415    
          M184                  M308    
          M185                  M416    
          M186                  M309    
          M187                  M417    
          M188                  M310    
          M189                  M418    
          M190                  M311    
          M191                  M419    
          M192                  M312    
          M193                  M420    
          M194                  M313    
          M195                  M314    
          M196                  M287    
          M145                  M287    
          M146                  M288    
          M140                  M281    
          M141                  M282    
          M142                  M284    
          M143                  M394    
          M144                  M285    
          M104                  M260    
          M105                  M373    
          M106                  M261    
          M107                  M374    
          M108                  M262    
          M109                  M375    
          M110                  M263    
          M111                  M376    
          M112                  M264    
          M113                  M377    
          M114                  M265    
          M115                  M378    
          M116                  M266    
          M117                  M379    
          M118                  M267    
          M119                  M380    
          M120                  M268    
          M121                  M381    
          M122                  M269    
          M123                  M382    
          M124                  M270    
          M125                  M383    
          M126                  M271    
          M127                  M384    
          M128                  M272    
          M129                  M385    
          M130                  M273    
          M131                  M386    
          M132                  M274    
          M133                  M387    
          M134                  M275    
          M135                  M388    
          M136                  M276    
          M137                  M389    
          M138                  M277    
          M139                  M278    
          M103                  M259    
          M102                  M258    
          M101                  M257    
          M100                  M256    
          M99                   M255    
          M98                   M254    
          M97                   M253    
          M96                   M252    
          M95                   M251    
          M59                   M230    
          M60                   M346    
          M61                   M231    
          M62                   M347    
          M63                   M232    
          M64                   M348    
          M65                   M233    
          M66                   M349    
          M67                   M234    
          M68                   M350    
          M69                   M235    
          M70                   M351    
          M71                   M236    
          M72                   M352    
          M73                   M237    
          M74                   M353    
          M75                   M238    
          M76                   M354    
          M77                   M239    
          M78                   M355    
          M79                   M240    
          M80                   M356    
          M81                   M241    
          M82                   M357    
          M83                   M242    
          M84                   M358    
          M85                   M243    
          M86                   M359    
          M87                   M244    
          M88                   M360    
          M89                   M245    
          M90                   M361    
          M91                   M246    
          M92                   M362    
          M93                   M247    
          M94                   M248    
          M54                   M224    
          M55                   M225    
          M56                   M227    
          M57                   M345    
          M58                   M228    
          M52                   M223    
          M53                   M197    
          M2      
#2      Calculs elementaires et assemblages               CPU (USER+SYST/SYST/ELAPS):      0.00      0.00      0.00
#2      Calculs elementaires et assemblages               CPU (USER+SYST/SYST/ELAPS):      0.00      0.00      0.00

------------ MAILLAGE .9000039 - IMPRESSIONS NIVEAU  1 ------------

ASTER 12.06.00 CONCEPT .9000039 CALCULE LE 14/12/2022 A 12:00:49 DE TYPE        
MAILLAGE_SDASTER                                                                

NOMBRE DE NOEUDS                         650

NOMBRE DE MAILLES                       1299
                              POI1                    1
                              SEG2                  195
                              TRIA3                1103

NOMBRE DE GROUPES DE NOEUDS                5
                              L100_P1                              1
                              L100_S1                            650
                              L100_BE                            195
                              TSEZ                               650
                              L100P1                               1

NOMBRE DE GROUPES DE MAILLES               4
                              L100_S1                           1103
                              L100_BE                            195
                              L100_P1                              1
                              TSEZ                              1299

--------------------------------------------------------------------------------


Sur les 1299 mailles du maillage .9000039, on a demandé l'affectation de 1299, on a pu en affecter 1298
 Modélisation     Type maille  Élément fini     Nombre
 PLAN             SEG2         THPLSE2          195
 PLAN             TRIA3        THPLTR3          1103
#2      Calculs elementaires et assemblages               CPU (USER+SYST/SYST/ELAPS):      0.00      0.00      0.00
   
   !-------------------------------------------------------------------------------!
   ! <A> <CHARGES2_87>                                                             !
   !                                                                               !
   !  La maille de nom M2 n'est pas de type surfacique (triangles ou quadrangles). !
   !  Elle ne sera pas affectée par SOURCE .                                       !
   !                                                                               !
   !                                                                               !
   ! Ceci est une alarme. Si vous ne comprenez pas le sens de cette                !
   ! alarme, vous pouvez obtenir des résultats inattendus !                        !
   !-------------------------------------------------------------------------------!
   
   
   !-------------------------------------------------------------------------------!
   ! <A> <CHARGES2_87>                                                             !
   !                                                                               !
   !  La maille de nom M3 n'est pas de type surfacique (triangles ou quadrangles). !
   !  Elle ne sera pas affectée par SOURCE .                                       !
   !                                                                               !
   !                                                                               !
   ! Ceci est une alarme. Si vous ne comprenez pas le sens de cette                !
   ! alarme, vous pouvez obtenir des résultats inattendus !                        !
   !-------------------------------------------------------------------------------!
   
   
   !-------------------------------------------------------------------------------!
   ! <A> <CHARGES2_87>                                                             !
   !                                                                               !
   !  La maille de nom M4 n'est pas de type surfacique (triangles ou quadrangles). !
   !  Elle ne sera pas affectée par SOURCE .                                       !
   !                                                                               !
   !                                                                               !
   ! Ceci est une alarme. Si vous ne comprenez pas le sens de cette                !
   ! alarme, vous pouvez obtenir des résultats inattendus !                        !
   !-------------------------------------------------------------------------------!
   
   
   !-------------------------------------------------------------------------------!
   ! <A> <CHARGES2_87>                                                             !
   !                                                                               !
   !  La maille de nom M5 n'est pas de type surfacique (triangles ou quadrangles). !
   !  Elle ne sera pas affectée par SOURCE .                                       !
   !                                                                               !
   !                                                                               !
   ! Ceci est une alarme. Si vous ne comprenez pas le sens de cette                !
   ! alarme, vous pouvez obtenir des résultats inattendus !                        !
   !-------------------------------------------------------------------------------!
   
   
   !-------------------------------------------------------------------------------!
   ! <A> <CHARGES2_87>                                                             !
   !                                                                               !
   !  La maille de nom M6 n'est pas de type surfacique (triangles ou quadrangles). !
   !  Elle ne sera pas affectée par SOURCE .                                       !
   !                                                                               !
   !                                                                               !
   ! Ceci est une alarme. Si vous ne comprenez pas le sens de cette                !
   ! alarme, vous pouvez obtenir des résultats inattendus !                        !
   !-------------------------------------------------------------------------------!
   
   
   !-------------------------------------------------------------------------------!
   ! <A> <CATAMESS_41>                                                             !
   !                                                                               !
   ! Le message d'alarme 'CHARGES2_87' a été émis 5 fois, il ne sera plus affiché. !
   !                                                                               !
   !                                                                               !
   ! Ceci est une alarme. Si vous ne comprenez pas le sens de cette                !
   ! alarme, vous pouvez obtenir des résultats inattendus !                        !
   !-------------------------------------------------------------------------------!
   
   
   !-------------------------------------------------------------------------------!
   ! <A> <CALCULEL_40>                                                             !
   !                                                                               !
   !  Erreur possible d'utilisation:                                               !
   !    Vous avez affecté des données sur certaines mailles mais ces données       !
   !    n'ont pas de signification pour les éléments finis portés par ces mailles. !
   !    Il s'agit peut-être d'une erreur d'affectation.                            !
   !                                                                               !
   !  Champ : '.9000044.CHTH.SOURE'                                                !
   !  Commentaire sur ce champ : Chargement provenant du mot cle SOURCE            !
   !  Grandeur : SOUR_R   Composante non reconnue : SOUR                           !
   !                                                                               !
   !  Ce problème concerne 195 mailles                                             !
   !  Les premières mailles concernées sont imprimées ci-dessous.                  !
   !  Type de l'élément affecté sur la première maille imprimée : THPLSE2          !
   !                                                                               !
   !                                                                               !
   ! Ceci est une alarme. Si vous ne comprenez pas le sens de cette                !
   ! alarme, vous pouvez obtenir des résultats inattendus !                        !
   !-------------------------------------------------------------------------------!
   
  Maille : M2. Cette maille appartient aux GROUP_MA : L100_BE TSEZ  
  Maille : M3. Cette maille appartient aux GROUP_MA : L100_BE TSEZ  
  Maille : M4. Cette maille appartient aux GROUP_MA : L100_BE TSEZ  
  Maille : M5. Cette maille appartient aux GROUP_MA : L100_BE TSEZ  
  Maille : M6. Cette maille appartient aux GROUP_MA : L100_BE TSEZ  
#2      Calculs elementaires et assemblages               CPU (USER+SYST/SYST/ELAPS):      0.00      0.00      0.00
#2      Calculs elementaires et assemblages               CPU (USER+SYST/SYST/ELAPS):      0.01      0.00      0.00
 --- RENUMEROTATION DES NOEUDS DU MODELE (RCMK) :
    --- NOMBRE DE COMPOSANTES CONNEXES DU MODELE :                     1
    --- HAUTEUR DE COLONNE MOYENNE (EN NOEUDS)
         (EN NE TENANT COMPTE QUE DES NOEUDS PHYSIQUES)
         AVANT RENUMEROTATION: 1.443D+02
         APRES RENUMEROTATION: 8.811D+00

Le système linéaire à résoudre a 650 degrés de liberté:
   - 650 sont des degrés de liberté physiques
     (ils sont portés par 650 noeuds du maillage)
   - 0 sont les couples de paramètres de Lagrange associés
     aux 0 relations linéaires dualisées.

La matrice est de taille 650 équations.
Elle contient 2402 termes non nuls si elle est symétrique et 4154 termes non nuls si elle n'est pas symétrique (le nombre de termes
non nuls est susceptible de varier si l'on utilise le contact en formulation continue ou la méthode XFEM avec contact).
Soit un taux de remplissage de   0.983 %.
#1      Resolution des systemes lineaires                 CPU (USER+SYST/SYST/ELAPS):      0.00      0.00      0.00
#2      Calculs elementaires et assemblages               CPU (USER+SYST/SYST/ELAPS):      0.00      0.00      0.00

Le système linéaire à résoudre a 652 degrés de liberté:
   - 650 sont des degrés de liberté physiques
     (ils sont portés par 650 noeuds du maillage)
   - 2 sont les couples de paramètres de Lagrange associés
     aux 1 relations linéaires dualisées.

La matrice est de taille 652 équations.
Elle contient 3705 termes non nuls si elle est symétrique et 6758 termes non nuls si elle n'est pas symétrique (le nombre de termes
non nuls est susceptible de varier si l'on utilise le contact en formulation continue ou la méthode XFEM avec contact).
Soit un taux de remplissage de   1.590 %.

 Il n'y a pas d'état initial défini. On prend un état initial nul.

  Archivage des champs
    Champ stocké <TEMP> à l'instant  0.000000000000e+00 pour le numéro d'ordre 0
NUMERO D'ORDRE:      0 INSTANT:   0.000E+00 DUREE MOYENNE:   2.000E-02
#1      Resolution des systemes lineaires                 CPU (USER+SYST/SYST/ELAPS):      0.01      0.00      0.02
#2      Calculs elementaires et assemblages               CPU (USER+SYST/SYST/ELAPS):      0.01      0.00      0.01
#2      Calculs elementaires et assemblages               CPU (USER+SYST/SYST/ELAPS):      0.00      0.00      0.00
La colonne 'MAILLAGE' est vide.
  # Mémoire (Mo) :   416.51 /   415.37 /    35.93 /    28.71 (VmPeak / VmSize / Optimum / Minimum)
  # Fin commande No : 0005   user+syst:        0.29s (syst:        0.00s, elaps:        0.29s)
  # ------------------------------------------------------------------------------------------

  # ------------------------------------------------------------------------------------------
  # Commande No :  0058            Concept de type : modele_sdaster
  # ------------------------------------------------------------------------------------------
  modele = AFFE_MODELE(MAILLAGE=mail,
                       AFFE=_F(PHENOMENE='MECANIQUE',
                               TOUT='OUI',
                               MODELISATION=('POU_D_TGM', ),),
                       INFO=1,
                       VERI_JACOBIEN='OUI',
                       PARTITION=_F(PARALLELISME='GROUP_ELEM',),
                       )


Sur les 10 mailles du maillage mail, on a demandé l'affectation de 10, on a pu en affecter 10
 Modélisation     Type maille  Élément fini     Nombre
 POU_D_TGM        SEG2         MECA_POU_D_TGM   10
#2      Calculs elementaires et assemblages               CPU (USER+SYST/SYST/ELAPS):      0.00      0.00      0.00
  # Mémoire (Mo) :   416.51 /   415.37 /    35.93 /    28.71 (VmPeak / VmSize / Optimum / Minimum)
  # Fin commande No : 0058   user+syst:        0.00s (syst:        0.00s, elaps:        0.00s)
  # ------------------------------------------------------------------------------------------

  # ------------------------------------------------------------------------------------------
  # Commande No :  0059            Concept de type : fonction_sdaster
  # ------------------------------------------------------------------------------------------
  Sigmaeps = DEFI_FONCTION(PROL_DROITE='LINEAIRE',
                           VALE=(1.6E-3, 330.0, 3.2E-3, 350.0, 6.4E-3, 367.0, 0.0128, 387.0, 0.02, 401.0, 0.027, 410.0, 0.04, 420.0, 0.07, 437.0, 0.1, 450.0, 0.15, 473.0, 0.2, 490.0, 0.3, 510.0),
                           NOM_PARA='EPSI',
                           PROL_GAUCHE='EXCLU',
                           INTERPOL=('LIN', ),
                           INFO=1,
                           NOM_RESU='TOUTRESU',
                           VERIF='CROISSANT',)

  # Mémoire (Mo) :   416.51 /   415.37 /    35.93 /    28.71 (VmPeak / VmSize / Optimum / Minimum)
  # Fin commande No : 0059   user+syst:        0.00s (syst:        0.00s, elaps:        0.00s)
  # ------------------------------------------------------------------------------------------

  # ------------------------------------------------------------------------------------------
  # Commande No :  0060            Concept de type : mater_sdaster
  # ------------------------------------------------------------------------------------------
  acier = DEFI_MATERIAU(TRACTION=_F(SIGM=Sigmaeps,),
                        ELAS=_F(E=2.06000E5,
                                RHO=7.85E-06,
                                NU=0.27,),
                        INFO=1,)


 MATERIAU : acier   
 RELATION DE COMPORTEMENT: TRACTION                        
                           ELAS                            

  # Mémoire (Mo) :   416.51 /   415.37 /    35.93 /    28.71 (VmPeak / VmSize / Optimum / Minimum)
  # Fin commande No : 0060   user+syst:        0.00s (syst:        0.00s, elaps:        0.00s)
  # ------------------------------------------------------------------------------------------

  # ------------------------------------------------------------------------------------------
  # Commande No :  0061            Concept de type : gfibre_sdaster
  # ------------------------------------------------------------------------------------------
  F_L100 = DEFI_GEOM_FIBRE(SECTION=_F(GROUP_FIBRE='G_L100',
                                      GROUP_MA_SECT=('L100_S1', ),
                                      MAILLAGE_SECT=L100,
                                      COOR_AXE_POUTRE=(0.0, 0.0),),
                           INFO=1,)

  # Mémoire (Mo) :   416.51 /   415.37 /    35.93 /    28.71 (VmPeak / VmSize / Optimum / Minimum)
  # Fin commande No : 0061   user+syst:        0.01s (syst:        0.00s, elaps:        0.01s)
  # ------------------------------------------------------------------------------------------

  # ------------------------------------------------------------------------------------------
  # Commande No :  0062            Concept de type : compor_sdaster
  # ------------------------------------------------------------------------------------------
  CL100 = DEFI_COMPOR(MATER_SECT=acier,
                      GEOM_FIBRE=F_L100,
                      MULTIFIBRE=_F(MATER=acier,
                                    GROUP_FIBRE=('G_L100', ),
                                    RELATION='VMIS_ISOT_TRAC',),
                      )

  # Mémoire (Mo) :   416.51 /   415.37 /    35.93 /    28.71 (VmPeak / VmSize / Optimum / Minimum)
  # Fin commande No : 0062   user+syst:        0.00s (syst:        0.00s, elaps:        0.00s)
  # ------------------------------------------------------------------------------------------

  # ------------------------------------------------------------------------------------------
  # Commande No :  0063            Concept de type : cham_mater
  # ------------------------------------------------------------------------------------------
  M_L100 = AFFE_MATERIAU(MAILLAGE=mail,
                         AFFE_COMPOR=_F(GROUP_MA=('GROUPM', ),
                                        COMPOR=CL100,),
                         AFFE=_F(MATER=(acier, ),
                                 GROUP_MA=('GROUPM', ),),
                         INFO=1,
                         )

  # Mémoire (Mo) :   416.51 /   415.37 /    35.93 /    28.71 (VmPeak / VmSize / Optimum / Minimum)
  # Fin commande No : 0063   user+syst:        0.00s (syst:        0.00s, elaps:        0.00s)
  # ------------------------------------------------------------------------------------------

  # ------------------------------------------------------------------------------------------
  # Commande No :  0064            Concept de type : cara_elem
  # ------------------------------------------------------------------------------------------
  carap = AFFE_CARA_ELEM(GEOM_FIBRE=F_L100,
                         MODELE=modele,
                         POUTRE=_F(SECTION='GENERALE',
                                   GROUP_MA=('GROUPM', ),
                                   NOM_SEC='L100',
                                   TABLE_CARA=C_L100,
                                   VARI_SECT='CONSTANT',),
                         MULTIFIBRE=_F(PREC_AIRE=1.E-2,
                                       GROUP_MA=('GROUPM', ),
                                       GROUP_FIBRE=('G_L100', ),
                                       PREC_INERTIE=2,),
                         ORIENTATION=_F(GROUP_MA=('GROUPM', ),
                                        CARA='VECT_Y',
                                        VALE=(1.0, 0.0, 0.0),),
                         INFO=1,)


     LE MODELE modele   CONTIENT : 
                                       10 ELEMENT(S) POUTRE
#2      Calculs elementaires et assemblages               CPU (USER+SYST/SYST/ELAPS):      0.00      0.00      0.00
  # Mémoire (Mo) :   417.66 /   416.48 /    35.93 /    28.74 (VmPeak / VmSize / Optimum / Minimum)
  # Fin commande No : 0064   user+syst:        0.01s (syst:        0.00s, elaps:        0.01s)
  # ------------------------------------------------------------------------------------------

  # ------------------------------------------------------------------------------------------
  # Commande No :  0066            Concept de type : char_meca
  # ------------------------------------------------------------------------------------------
  Vincules = AFFE_CHAR_MECA(MODELE=modele,
                            DDL_IMPO=_F(DRY=0.0,
                                        DRX=0.0,
                                        DRZ=0.0,
                                        GROUP_NO=('I1', ),
                                        DZ=0.0,
                                        DX=0.0,
                                        DY=0.0,),
                            INFO=1,
                            VERI_NORM='OUI',)

  # Mémoire (Mo) :   417.66 /   416.48 /    35.93 /    28.74 (VmPeak / VmSize / Optimum / Minimum)
  # Fin commande No : 0066   user+syst:        0.01s (syst:        0.00s, elaps:        0.01s)
  # ------------------------------------------------------------------------------------------

  # ------------------------------------------------------------------------------------------
  # Commande No :  0067            Concept de type : char_meca
  # ------------------------------------------------------------------------------------------
  charg = AFFE_CHAR_MECA(MODELE=modele,
                         FORCE_NODALE=_F(GROUP_NO=('F1', ),
                                         FY=5000.0,),
                         INFO=1,
                         VERI_NORM='OUI',)

  # Mémoire (Mo) :   417.66 /   416.48 /    35.93 /    28.74 (VmPeak / VmSize / Optimum / Minimum)
  # Fin commande No : 0067   user+syst:        0.00s (syst:        0.00s, elaps:        0.00s)
  # ------------------------------------------------------------------------------------------

  # ------------------------------------------------------------------------------------------
  # Commande No :  0068            Concept de type : fonction_sdaster
  # ------------------------------------------------------------------------------------------
  ramp = DEFI_FONCTION(INFO=2,
                       VALE=(0.0, 0.0, 1, 1.0),
                       NOM_PARA='INST',
                       TITRE=('ramp', ),
                       PROL_DROITE='EXCLU',
                       INTERPOL=('LIN', ),
                       PROL_GAUCHE='EXCLU',
                       NOM_RESU='TOUTRESU',
                       VERIF='CROISSANT',)


--------------------------------------------------------------------------------
 ramp                                                                           
  
  
  FONCTION ramp                : TOUTRESU = F(INST    )
     DONNEE EN                      2  POINTS
     INTERPOLATION LIN LIN 
     PROLONGEMENT A GAUCHE : EXCLU   
     PROLONGEMENT A DROITE : EXCLU   

 <-PARAMETRE-><-RESULTAT->  <-PARAMETRE-><-RESULTAT->  <-PARAMETRE-><-RESULTAT->  
   INST         TOUTRESU      INST         TOUTRESU      INST         TOUTRESU    
  0.00000D+00  0.00000D+00   1.00000D+00  1.00000D+00
  # Mémoire (Mo) :   417.66 /   416.48 /    35.93 /    28.74 (VmPeak / VmSize / Optimum / Minimum)
  # Fin commande No : 0068   user+syst:        0.00s (syst:        0.00s, elaps:        0.00s)
  # ------------------------------------------------------------------------------------------

  # ------------------------------------------------------------------------------------------
  # Commande No :  0069            Concept de type : listr8_sdaster
  # ------------------------------------------------------------------------------------------
  time = DEFI_LIST_REEL(INFO=2,
                        DEBUT=0.0,
                        TITRE=('time', ),
                        INTERVALLE=_F(NOMBRE=100,
                                      JUSQU_A=1,),
                        )


 -------------------------------------------------------------------------------
 time                                                                           
  
   INTERVALLE            DEBUT          JUSQU_A          PAR_PAS     NOMBRE
            1      0.00000E+00      1.00000E+00      1.00000E-02        100
   IMPRESSION DE LA LISTE DE REELS
[...]
---------------------------------------------------------------------
|     0        X | 4.48531E-03  X | 4.44045E+04    |ELASTIQUE       |
|     1        X | 4.10190E-05  X | 4.06088E+02    |TANGENTE        |
|     2          | 4.08520E-08    | 4.04435E-01    |TANGENTE        |
---------------------------------------------------------------------

  Critère(s) de convergence atteint(s)
    Le résidu de type <RESI_GLOB_RELA> vaut  4.085201975526e-08 au noeud et degré de liberté <N1      GRX>

  Temps CPU consommé dans ce pas de temps  : 0.070 s
    * Temps moyen par itération de Newton  : 0.023 s ( 3 itérations     )
    * Temps total intégration comportement : 0.060 s ( 4 intégrations   )
    * Temps assemblage matrice             : 0.000 s
    * Temps total factorisation matrice    : 0.000 s ( 3 factorisations )
    * Temps construction second membre     : 0.000 s
    * Temps total résolution K.U=F         : 0.000 s ( 3 résolutions    )
    * Temps autres opérations              : 0.010 s

  Mémoire (Mo) :   445.59 /   442.97 /    61.55 /    34.10 (VmPeak / VmSize / Optimum / Minimum)

  Adaptation du pas de temps.

    Pour la méthode d'adaptation de type <FIXE>, le critère n'est pas vérifié. Le pas de temps n'est pas adapté.

    Aucun critère d'adaptation n'est vérifié. On garde le pas de temps < 1.000000000000e-02>.

    Après ajustement sur les points de passage obligatoires, le plus petit pas de temps vaut < 9.999999999999e-03>.
---------------------------------------------------------------------

 Instant de calcul:  1.000000000000e+00
---------------------------------------------------------------------
|     NEWTON     |     RESIDU     |     RESIDU     |     OPTION     |
|    ITERATION   |     RELATIF    |     ABSOLU     |   ASSEMBLAGE   |
|                | RESI_GLOB_RELA | RESI_GLOB_MAXI |                |
---------------------------------------------------------------------
|     0        X | 4.55527E-03  X | 4.55527E+04    |ELASTIQUE       |
|     1        X | 6.13457E-05  X | 6.13457E+02    |TANGENTE        |
|     2          | 5.41251E-08    | 5.41251E-01    |TANGENTE        |
---------------------------------------------------------------------

  Critère(s) de convergence atteint(s)
    Le résidu de type <RESI_GLOB_RELA> vaut  5.412506505179e-08 au noeud et degré de liberté <N1      GRX>

  Temps CPU consommé dans ce pas de temps  : 0.080 s
    * Temps moyen par itération de Newton  : 0.027 s ( 3 itérations     )
    * Temps total intégration comportement : 0.070 s ( 4 intégrations   )
    * Temps assemblage matrice             : 0.000 s
    * Temps total factorisation matrice    : 0.000 s ( 3 factorisations )
    * Temps construction second membre     : 0.000 s
    * Temps total résolution K.U=F         : 0.000 s ( 3 résolutions    )
    * Temps autres opérations              : 0.010 s

  Mémoire (Mo) :   445.59 /   442.97 /    61.56 /    34.10 (VmPeak / VmSize / Optimum / Minimum)

  Archivage des champs
    Champ stocké <DEPL> à l'instant  1.000000000000e+00 pour le numéro d'ordre 50
    Champ stocké <SIEF_ELGA> à l'instant  1.000000000000e+00 pour le numéro d'ordre 50
    Champ stocké <VARI_ELGA> à l'instant  1.000000000000e+00 pour le numéro d'ordre 50
    Champ stocké <COMPORTEMENT> à l'instant  1.000000000000e+00 pour le numéro d'ordre 50
    Champ stocké <STRX_ELGA> à l'instant  1.000000000000e+00 pour le numéro d'ordre 50

  Statistiques sur tout le transitoire
    * Nombre de pas de temps                      : 100
    * Nombre d'itérations de Newton               : 239
    * Nombre d'intégrations du comportement       : 339
    * Nombre de factorisations de la matrice      : 239
    * Nombre de résolutions de systèmes linéaires : 239

  Temps CPU consommé dans le transitoire          : 5.380 s
    * Temps total intégration comportement        : 3.980 s
    * Temps assemblage matrice                    : 0.090 s
    * Temps total factorisation matrice           : 0.050 s
    * Temps construction second membre            : 0.720 s
    * Temps total résolution K.U=F                : 0.030 s
    * Temps autres opérations                     : 0.510 s
#1      Resolution des systemes lineaires                 CPU (USER+SYST/SYST/ELAPS):      0.09      0.01      0.06
#2      Calculs elementaires et assemblages               CPU (USER+SYST/SYST/ELAPS):      4.44      0.18      4.39
#3      Dechargement de la memoire sur disque             CPU (USER+SYST/SYST/ELAPS):      0.03      0.02      0.02
  # Mémoire (Mo) :   445.59 /   442.97 /    61.56 /    34.10 (VmPeak / VmSize / Optimum / Minimum)
  # Fin commande No : 0071   user+syst:        5.89s (syst:        0.27s, elaps:        5.90s)
  # ------------------------------------------------------------------------------------------

  # ------------------------------------------------------------------------------------------
  # Commande No :  0072            Concept de type : evol_noli
  # ------------------------------------------------------------------------------------------
  Resultat = CALC_CHAMP(reuse=Resultat,
                        RESULTAT=Resultat,
                        MODELE=modele,
                        TOUT='OUI',
                        PRECISION=1.E-06,
                        CONTRAINTE=('EFGE_ELNO', 'EFGE_NOEU'),
                        INFO=1,
                        CRITERE='RELATIF',)

#2      Calculs elementaires et assemblages               CPU (USER+SYST/SYST/ELAPS):      0.05      0.01      0.06
  # Mémoire (Mo) :   446.61 /   445.77 /    62.55 /    34.10 (VmPeak / VmSize / Optimum / Minimum)
  # Fin commande No : 0072   user+syst:        0.19s (syst:        0.02s, elaps:        0.18s)
  # ------------------------------------------------------------------------------------------

  # ------------------------------------------------------------------------------------------
  # Commande No :  0073            Concept de type : -
  # ------------------------------------------------------------------------------------------
  IMPR_RESU(FORMAT='MED',
            CONCEPT=_F(CARA_ELEM=carap,
                       REPERE_LOCAL='OUI',
                       MODELE=modele,),
            RESU=_F(RESULTAT=Resultat,
                    INFO_MAILLAGE='NON',
                    TOUT_CMP='OUI',
                    IMPR_NOM_VARI='NON',
                    NOM_CHAM=('DEPL', 'EFGE_NOEU'),
                    ),
            UNITE=80,
            INFO=1,)

  
IMPRESSION D'UN CHAMP DE CONCEPT : Caracteristiques generales des poutres                                          
NOM DU CHAMP : carap   _CARGENPO  
  
IMPRESSION D'UN CHAMP DE CONCEPT : Caracteristiques geom. des poutres                                              
NOM DU CHAMP : carap   _CARGEOPO  
  
IMPRESSION D'UN CHAMP DE CONCEPT : Orientation des coques et des poutres                                           
NOM DU CHAMP : carap   _CARORIEN  
#2      Calculs elementaires et assemblages               CPU (USER+SYST/SYST/ELAPS):      0.00      0.00      0.00
  # Mémoire (Mo) :   446.61 /   445.77 /    62.55 /    34.10 (VmPeak / VmSize / Optimum / Minimum)
  # Fin commande No : 0073   user+syst:        0.19s (syst:        0.05s, elaps:        0.21s)
  # ------------------------------------------------------------------------------------------

  # ------------------------------------------------------------------------------------------
  # Commande No :  0074            Concept de type : -
  # ------------------------------------------------------------------------------------------
  FIN(RETASSAGE='NON',
      INFO_RESU='OUI',
      FORMAT_HDF='NON',
      UNITE=6,
      )

   
   !-------------------------------------------------------------------------!
   ! <I> <CATAMESS_89>                                                       !
   !                                                                         !
   !     Liste des alarmes émises lors de l'exécution du calcul.             !
   !                                                                         !
   !     Les alarmes que vous avez choisies d'ignorer sont précédées de (*). !
   !     Nombre d'occurrences pour chacune des alarmes :                     !
   !            CALCULEL_40          émise    4 fois                         !
   !            CHARGES2_87          émise  780 fois                         !
   !            MODELISA7_9          émise    2 fois                         !
   !            SUPERVIS2_2          émise    1 fois                         !
   !            SUPERVIS_9           émise    1 fois                         !
   !-------------------------------------------------------------------------!
   

 ======>

 STRUCTURE DU CONCEPT Resultat CALCULE POUR         51 NUMEROS D'ORDRE

 LISTE DES NOMS SYMBOLIQUES:
 ! ---------- !----------------!----------------!----------------!----------------!----------------!----------------!----------------!
 ! NUME_ORDRE !      DEPL      !   EFGE_ELNO    !   EFGE_NOEU    !   SIEF_ELGA    !   STRX_ELGA    !   VARI_ELGA    !  COMPORTEMENT  !
 ! ---------- !----------------!----------------!----------------!----------------!----------------!----------------!----------------!
 !          0 !     DEPL_R     !     SIEF_R     !     SIEF_R     !     SIEF_R     !     STRX_R     !     VARI_R     !     COMPOR     !
 !        ... !      ...       !      ...       !      ...       !      ...       !      ...       !      ...       !      ...       !
 !         50 !     DEPL_R     !     SIEF_R     !     SIEF_R     !     SIEF_R     !     STRX_R     !     VARI_R     !     COMPOR     !
 ! ---------- !----------------!----------------!----------------!----------------!----------------!----------------!----------------!

 LISTE DES NOMS DE VARIABLES D'ACCES:
                                      INST             DE TYPE  R

 LISTE DES NOMS DE PARAMETRES:
 ! ---------- !----------------!----------------!----------------!----------------!----------------!----------------!----------------!----------------!
 ! NUME_ORDRE !    CARAELEM    !    CHAMPMAT    !     MODELE     !     EXCIT      !  ETA_PILOTAGE  !   ITER_GLOB    !   CHAR_MINI    ! TRAN_GENE_NOLI !
 ! ---------- !----------------!----------------!----------------!----------------!----------------!----------------!----------------!----------------!
 !          0 !       K8       !       K8       !       K8       !      K24       !       R        !       I        !       R        !      K24       !
 !        ... !      ...       !      ...       !      ...       !      ...       !      ...       !      ...       !      ...       !      ...       !
 !         50 !       K8       !       K8       !       K8       !      K24       !       R        !       I        !       R        !      K24       !
 ! ---------- !----------------!----------------!----------------!----------------!----------------!----------------!----------------!----------------!
 ---------------------------------------------------------------------------
 Concepts de la base: G
    Nom       Type                 Taille (Mo)         Nombre      Nombre de
                                                     d'objets       segments
    TOTAL                                61.57           1511           1977
  
    mail       MAILLAGE_SDASTER           0.01             35             59
    L100       MAILLAGE_SDASTER           0.15             35             66
    Resultat   EVOL_NOLI                 39.53           1215           1481
    C_L100     TABLE_SDASTER              0.00             34             34
    Vincules   CHAR_MECA                  0.00             19             39
    Sigmaeps   FONCTION_SDASTER           0.00              3              3
    time       LISTR8_SDASTER             0.00              5              5
    modele     MODELE_SDASTER             0.00              8             13
    acier      MATER_SDASTER              0.00              9              9
    F_L100     GFIBRE_SDASTER             0.03              7              7
    CL100      COMPOR_SDASTER             0.00              2              2
    M_L100     CHAM_MATER                 0.00             10             20
    carap      CARA_ELEM                  0.60             27             47
    charg      CHAR_MECA                  0.00             13             28
    ramp       FONCTION_SDASTER           0.00              3              3
    deflist    LIST_INST                  0.00              9              9
    &FOZERO                               0.00              2              2
    &&_NUM_C                              0.00              1              1
    &CATA.AC                              0.00              2              4
    &CATA.CL                              0.28              1              3
    &CATA.GD                              0.07              4             11
    &CATA.ME                              0.15              2              4
    &CATA.OP                              0.31              4             19
    &CATA.PH                              0.00              1              1
    &CATA.PR                              0.00              2              4
    &CATA.TE                             20.29             17             42
    &CATA.TH                              0.01              2              4
    &CATA.TM                              0.02              7             11
    _0000001                              0.12             32             46
 ---------------------------------------------------------------------------


     Nom de la base                          :  GLOBALE
     Nombre d'enregistrements utilisés       :  90
     Nombre d'enregistrements maximum        :  62914
     Longueur d'enregistrement (octets)      :  819200
     Nombre total d'accès en lecture         :  317
     Volume des accès en lecture             :        247.66 Mo.
     Nombre total d'accès en écriture        :  126
     Volume des accès en écriture            :         98.44 Mo.
     Nombre d'identificateurs utilisés       :  3115
     Taille maximum du répertoire            :  4000
     Pourcentage d'utilisation du répertoire :  77 %


     Nom de la base                          :  VOLATILE
     Nombre d'enregistrements utilisés       :  9
     Nombre d'enregistrements maximum        :  62914
     Longueur d'enregistrement (octets)      :  819200
     Nombre total d'accès en lecture         :  555
     Volume des accès en lecture             :        433.59 Mo.
     Nombre total d'accès en écriture        :  150
     Volume des accès en écriture            :        117.19 Mo.
     Nombre d'identificateurs utilisés       :  1950
     Taille maximum du répertoire            :  2000
     Pourcentage d'utilisation du répertoire :  97 %

 <FIN> Arrêt normal dans "FIN".

 La mémoire demandée au lancement est surestimée, elle est de 2350.00 Mo.
 Le pic mémoire utilisée est de 446.61 Mo.



     Nom de la base                          :  ELEMBASE
     Nombre d'enregistrements utilisés       :  30
     Nombre d'enregistrements maximum        :  512
     Longueur d'enregistrement (octets)      :  819200
     Nombre total d'accès en lecture         :  52
     Volume des accès en lecture             :         40.62 Mo.
     Nombre total d'accès en écriture        :  0
     Volume des accès en écriture            :          0.00 Mo.
     Nombre d'identificateurs utilisés       :  123
     Taille maximum du répertoire            :  300
     Pourcentage d'utilisation du répertoire :  41 %
  
 <I>       FERMETURE DES BASES EFFECTUEE
  
   STATISTIQUES CONCERNANT L'ALLOCATION DYNAMIQUE :
     TAILLE CUMULEE MAXIMUM            :                    63  Mo.
     TAILLE CUMULEE LIBEREE            :                   259  Mo.
     NOMBRE TOTAL D'ALLOCATIONS        :                695113
     NOMBRE TOTAL DE LIBERATIONS       :                695093
     APPELS AU MECANISME DE LIBERATION :                     1
     TAILLE MEMOIRE CUMULEE RECUPEREE  :                    38  Mo.
     VOLUME DES LECTURES               :                     0  Mo.
     VOLUME DES ECRITURES              :                    44  Mo.
  
   MEMOIRE JEVEUX MINIMALE REQUISE POUR L'EXECUTION :      34.10 Mo
     - IMPOSE DE NOMBREUX ACCES DISQUE
     - RALENTIT LA VITESSE D'EXECUTION
   MEMOIRE JEVEUX OPTIMALE REQUISE POUR L'EXECUTION :      62.55 Mo
     - LIMITE LES ACCES DISQUE
     - AMELIORE LA VITESSE D'EXECUTION
   MAXIMUM DE MEMOIRE UTILISEE PAR LE PROCESSUS     :     446.61 Mo
     - COMPREND LA MEMOIRE CONSOMMEE PAR  JEVEUX, 
       LE SUPERVISEUR PYTHON, LES LIBRAIRIES EXTERNES
  
 <I>       FIN D'EXECUTION LE : ME-14-DECE-2022 12:00:55


  <I> Informations sur les temps d'exécution
      Temps cpu total                         6.91 s
      Temps cpu user total                    6.51 s
      Temps cpu systeme total                 0.40 s
      Temps cpu restant                     803.09 s


  La signature de la base sauvegardée est (à l'adresse 43417600) :
    0517ffc0a7c94a386c7ef40978a50b0ac91a2b18

 ********************************************************************************
 * COMMAND                  :       USER :     SYSTEM :   USER+SYS :    ELAPSED *
 ********************************************************************************
 * init (jdc)               :       0.19 :       0.02 :       0.21 :       0.20 *
 *  . compile               :       0.00 :       0.00 :       0.00 :       0.00 *
 *  . exec_compile          :       0.04 :       0.00 :       0.04 :       0.04 *
 *  . report                :       0.01 :       0.00 :       0.01 :       0.00 *
 *  . build                 :       0.00 :       0.00 :       0.00 :       0.00 *
 * DEBUT                    :       0.01 :       0.02 :       0.03 :       0.03 *
 * LIRE_MAILLAGE            :       0.01 :       0.00 :       0.01 :       0.00 *
 * LIRE_MAILLAGE            :       0.01 :       0.00 :       0.01 :       0.02 *
 * DEFI_GROUP               :       0.01 :       0.00 :       0.01 :       0.00 *
 * MACR_CARA_POUTRE         :       0.29 :       0.00 :       0.29 :       0.29 *
 * AFFE_MODELE              :       0.00 :       0.00 :       0.00 :       0.00 *
 * DEFI_FONCTION            :       0.00 :       0.00 :       0.00 :       0.00 *
 * DEFI_MATERIAU            :       0.00 :       0.00 :       0.00 :       0.00 *
 * DEFI_GEOM_FIBRE          :       0.01 :       0.00 :       0.01 :       0.01 *
 * DEFI_COMPOR              :       0.00 :       0.00 :       0.00 :       0.00 *
 * AFFE_MATERIAU            :       0.00 :       0.00 :       0.00 :       0.00 *
 * AFFE_CARA_ELEM           :       0.01 :       0.00 :       0.01 :       0.01 *
 * AFFE_CHAR_MECA           :       0.01 :       0.00 :       0.01 :       0.01 *
 * AFFE_CHAR_MECA           :       0.00 :       0.00 :       0.00 :       0.00 *
 * DEFI_FONCTION            :       0.00 :       0.00 :       0.00 :       0.00 *
 * DEFI_LIST_REEL           :       0.00 :       0.00 :       0.00 :       0.00 *
 * DEFI_LIST_INST           :       0.01 :       0.00 :       0.01 :       0.01 *
 * STAT_NON_LINE            :       5.62 :       0.27 :       5.89 :       5.90 *
 * CALC_CHAMP               :       0.17 :       0.02 :       0.19 :       0.18 *
 * IMPR_RESU                :       0.14 :       0.05 :       0.19 :       0.21 *
 * FIN                      :       0.02 :       0.02 :       0.04 :       0.04 *
 *  . part Superviseur      :       0.27 :       0.04 :       0.31 :       0.35 *
 *  . part Fortran          :       6.24 :       0.36 :       6.60 :       6.58 *
 ********************************************************************************
 * TOTAL_JOB                :       6.51 :       0.40 :       6.91 :       6.93 *
 ********************************************************************************

EXECUTION_CODE_ASTER_EXIT_11604-caelinux-System-Product-Name=0
