                                                                                
                                                                                
              -- CODE_ASTER -- VERSION : EXPLOITATION (stable) --               
                                                                                
                     Version 12.6.0 modifiée le 16/06/2016                      
                     révision 77d3379d51e8 - branche 'v12'                      
                         Copyright EDF R&D 1991 - 2022                          
                                                                                
                    Exécution du : Wed Dec 14 12:00:48 2022                     
                Nom de la machine : caelinux-System-Product-Name                
                              Architecture : 64bit                              
                          Type de processeur : x86_64                           
     Système d'exploitation : Linux debian stretch/sid  4.15.0-142-generic      
                        Langue des messages : it (UTF-8)                        
                                                                                
                           Version de Python : 2.7.10                           
                            Version de NumPy : 1.9.2                            
                           Parallélisme MPI : inactif                           
                          Parallélisme OpenMP : actif                           
                        Nombre de processus utilisés : 1                        
                     Version de la librairie HDF5 : 1.8.14                      
                      Version de la librairie MED : 3.2.0                       
                     Version de la librairie MFront : 2.0.2                     
                     Version de la librairie MUMPS : 4.10.0                     
                        Librairie PETSc : non disponible                        
                    Version de la librairie SCOTCH : 5.1.10                     
                  Mémoire limite pour l'exécution : 2350.00 Mo                  
                   consommée par l'initialisation : 369.27 Mo                   
                  par les objets du jeu de commandes : 3.45 Mo                  
                 reste pour l'allocation dynamique : 1977.29 Mo                 
                Taille limite des fichiers d'échange : 12.00 Go                 
                                                                                
 <I> <FIN> FERMETURE DE LA BASE "GLOBALE" EFFECTUEE.

 <FIN> Arrêt normal dans "FIN".
 <I> <FIN> ARRET NORMAL DANS "FIN" PAR APPEL A "JEFINI".
